Version 4.1
SHEET 1 1240 680
WIRE 320 -320 -784 -320
WIRE 672 -320 320 -320
WIRE 944 -320 672 -320
WIRE 1040 -320 944 -320
WIRE -784 -240 -784 -320
WIRE 944 -224 944 -320
WIRE 672 -80 672 -320
WIRE -432 -64 -576 -64
WIRE 640 -64 -432 -64
WIRE -576 -48 -576 -64
WIRE 864 -48 704 -48
WIRE 944 -48 944 -144
WIRE 944 -48 864 -48
WIRE 608 -32 -160 -32
WIRE 640 -32 608 -32
WIRE -784 80 -784 -160
WIRE -736 80 -784 80
WIRE 608 80 608 -32
WIRE 720 80 608 80
WIRE 848 80 784 80
WIRE 944 80 944 -48
WIRE 944 80 928 80
WIRE -736 96 -736 80
WIRE -576 96 -576 32
WIRE -304 112 -464 112
WIRE -304 128 -304 112
WIRE 320 160 320 -320
WIRE -464 176 -464 112
WIRE 608 208 608 80
WIRE 848 208 608 208
WIRE 944 208 944 80
WIRE 944 208 928 208
WIRE -304 240 -304 208
WIRE -160 240 -160 -32
WIRE -160 240 -304 240
WIRE 224 240 -80 240
WIRE 464 240 416 240
WIRE 464 256 464 240
WIRE -304 272 -304 240
WIRE -784 304 -784 80
WIRE 224 304 80 304
WIRE 80 336 80 304
WIRE 80 432 80 416
WIRE 384 432 384 416
WIRE -784 464 -784 384
WIRE 256 464 256 416
WIRE 256 464 -784 464
WIRE 672 464 672 -16
WIRE 672 464 256 464
WIRE 1184 464 672 464
FLAG -736 96 0
FLAG -304 352 0
FLAG -464 256 0
FLAG -576 96 0
FLAG 864 -48 OUT
FLAG -432 -64 INPUT
FLAG 384 432 0
FLAG 464 256 0
FLAG 80 432 0
SYMBOL res -320 112 R0
SYMATTR InstName R1
SYMATTR Value 10k
SYMBOL res -320 256 R0
SYMATTR InstName R2
SYMATTR Value 40k2
SYMBOL res -64 224 R90
WINDOW 0 0 56 VBottom 2
WINDOW 3 32 56 VTop 2
SYMATTR InstName R3
SYMATTR Value 866
SYMBOL res 944 64 R90
WINDOW 0 0 56 VBottom 2
WINDOW 3 32 56 VTop 2
SYMATTR InstName R4
SYMATTR Value 100k
SYMBOL res 944 192 R90
WINDOW 0 0 56 VBottom 2
WINDOW 3 32 56 VTop 2
SYMATTR InstName R5
SYMATTR Value 4750000
SYMBOL cap 784 64 R90
WINDOW 0 0 32 VBottom 2
WINDOW 3 32 32 VTop 2
SYMATTR InstName C1
SYMATTR Value 100pf
SYMBOL Comparators\\LT1017 672 -48 R0
SYMATTR InstName U1
SYMBOL voltage -464 160 R0
SYMATTR InstName V1
SYMATTR Value 2.5V
SYMBOL voltage 80 320 R0
WINDOW 3 -17 174 Left 2
WINDOW 123 0 0 Left 0
WINDOW 39 0 0 Left 0
SYMATTR InstName V2
SYMATTR Value PULSE(0 5 0 0.000001 0.000001 0.1 0.2 10)
SYMBOL voltage -784 288 R0
SYMATTR InstName V3
SYMATTR Value 5V
SYMBOL voltage -784 -256 R0
SYMATTR InstName V4
SYMATTR Value 5V
SYMBOL voltage -576 -64 R0
WINDOW 123 0 0 Left 0
WINDOW 39 0 0 Left 0
SYMATTR InstName V5
SYMATTR Value SINE(2 2 100)
SYMBOL res 928 -240 R0
SYMATTR InstName R6
SYMATTR Value 10K
SYMBOL Switches\\ADG411 320 288 R0
SYMATTR InstName U2
TEXT -816 520 Left 2 !.tran 1
